Transmission Power Flow Cases/PV_5min_Save_Cases_raw/2025_3_3_23_50_30_bus118_pv.raw
0,   100.00, 33, 0, 1, 60.00     / PSS(R)E-33.7    TUE, AUG 01 2017   0:56
 08/25/93 UW ARCHIVE           100.0  1961 W IEEE 118 BUS TE
 08/25/93 UW ARCHIVE           100.0  1961 W IEEE 118 BUS TE
     1,'RIVERSDE    ', 138.0000,2,   1,   1,   1,0.97687,  29.5895,1.10000,0.90000,1.10000,0.90000
     2,'POKAGON     ', 138.0000,1,   1,   1,   1,0.98122,  29.6972,1.10000,0.90000,1.10000,0.90000
     3,'HICKRYCK    ', 138.0000,1,   1,   1,   1,0.98321,  30.0789,1.10000,0.90000,1.10000,0.90000
     4,'NWCARLSL    ', 138.0000,2,   1,   1,   1,0.99800,  32.3154,1.10000,0.90000,1.10000,0.90000
     5,'OLIVE       ', 138.0000,1,   1,   1,   1,1.00140,  32.4879,1.10000,0.90000,1.10000,0.90000
     6,'KANKAKEE    ', 138.0000,2,   1,   1,   1,0.99000,  31.1556,1.10000,0.90000,1.10000,0.90000
     7,'JACKSNRD    ', 138.0000,1,   1,   1,   1,0.98874,  30.6830,1.10000,0.90000,1.10000,0.90000
     8,'OLIVE       ', 138.0000,2,   1,   1,   1,1.01500,  35.1719,1.10000,0.90000,1.10000,0.90000
     9,'BEQUINE     ', 138.0000,1,   1,   1,   1,1.04791,  39.9124,1.10000,0.90000,1.10000,0.90000
    10,'BREED       ', 138.0000,2,   1,   1,   1,1.05000,  44.9274,1.10000,0.90000,1.10000,0.90000
    11,'SOUTHBND    ', 138.0000,1,   1,   1,   1,0.98867,  30.5467,1.10000,0.90000,1.10000,0.90000
    12,'TWINBRCH    ', 138.0000,2,   1,   1,   1,0.98724,  30.0881,1.10000,0.90000,1.10000,0.90000
    13,'CONCORD     ', 138.0000,1,   1,   1,   1,0.98526,  29.5873,1.10000,0.90000,1.10000,0.90000
    14,'GOSHENJT    ', 138.0000,1,   1,   1,   1,0.98997,  29.4527,1.10000,0.90000,1.10000,0.90000
    15,'FTWAYNE     ', 138.0000,2,   1,   1,   1,0.99618,  28.5788,1.10000,0.90000,1.10000,0.90000
    16,'N. E.       ', 138.0000,1,   1,   1,   1,0.99231,  29.5530,1.10000,0.90000,1.10000,0.90000
    17,'SORENSON    ', 138.0000,1,   1,   1,   1,1.01158,  29.6276,1.10000,0.90000,1.10000,0.90000
    18,'MCKINLEY    ', 138.0000,2,   1,   1,   1,0.99463,  28.7434,1.10000,0.90000,1.10000,0.90000
    19,'LINCOLN     ', 138.0000,2,   1,   1,   1,0.98928,  28.5806,1.10000,0.90000,1.10000,0.90000
    20,'ADAMS       ', 138.0000,1,   1,   1,   1,0.99221,  28.3731,1.10000,0.90000,1.10000,0.90000
    21,'JAY         ', 138.0000,1,   1,   1,   1,0.99502,  28.6623,1.10000,0.90000,1.10000,0.90000
    22,'RANDOLPH    ', 138.0000,1,   1,   1,   1,1.00127,  29.3475,1.10000,0.90000,1.10000,0.90000
    23,'COLLCRNR    ', 138.0000,1,   1,   1,   1,1.01230,  30.9014,1.10000,0.90000,1.10000,0.90000
    24,'TRENTON     ', 138.0000,2,   1,   1,   1,0.99911,  30.8887,1.10000,0.90000,1.10000,0.90000
    25,'TANNRSCK    ', 138.0000,2,   1,   1,   1,1.04270,  33.1260,1.10000,0.90000,1.10000,0.90000
    26,'TANNRSCK    ', 138.0000,2,   1,   1,   1,1.01500,  35.2000,1.10000,0.90000,1.10000,0.90000
    27,'MADISON     ', 138.0000,2,   1,   1,   1,0.99496,  29.2489,1.10000,0.90000,1.10000,0.90000
    28,'MULLIN      ', 138.0000,1,   1,   1,   1,0.98147,  29.1716,1.10000,0.90000,1.10000,0.90000
    29,'GRANT       ', 138.0000,1,   1,   1,   1,0.96961,  29.5550,1.10000,0.90000,1.10000,0.90000
    30,'SORENSON    ', 138.0000,1,   1,   1,   1,1.00227,  31.8657,1.10000,0.90000,1.10000,0.90000
    31,'DEERCRK     ', 138.0000,2,   1,   1,   1,0.96700,  29.9426,1.10000,0.90000,1.10000,0.90000
    32,'DELAWARE    ', 138.0000,2,   1,   1,   1,0.99082,  29.2901,1.10000,0.90000,1.10000,0.90000
    33,'HAVILAND    ', 138.0000,1,   1,   1,   1,1.00652,  27.5097,1.10000,0.90000,1.10000,0.90000
    34,'ROCKHILL    ', 138.0000,2,   1,   1,   1,1.02101,  27.0107,1.10000,0.90000,1.10000,0.90000
    35,'WESTLIMA    ', 138.0000,1,   1,   1,   1,1.01914,  26.8027,1.10000,0.90000,1.10000,0.90000
    36,'STERLING    ', 138.0000,2,   1,   1,   1,1.01874,  26.8078,1.10000,0.90000,1.10000,0.90000
    37,'EASTLIMA    ', 138.0000,1,   1,   1,   1,1.02455,  27.1906,1.10000,0.90000,1.10000,0.90000
    38,'EASTLIMA    ', 138.0000,1,   1,   1,   1,0.98785,  29.4065,1.10000,0.90000,1.10000,0.90000
    39,'NWLIBRTY    ', 138.0000,1,   1,   1,   1,1.00793,  25.5999,1.10000,0.90000,1.10000,0.90000
    40,'WEST END    ', 138.0000,2,   1,   1,   1,1.00290,  25.0832,1.10000,0.90000,1.10000,0.90000
    41,'S.TIFFIN    ', 138.0000,1,   1,   1,   1,1.00035,  24.8015,1.10000,0.90000,1.10000,0.90000
    42,'HOWARD      ', 138.0000,2,   1,   1,   1,1.00381,  25.3276,1.10000,0.90000,1.10000,0.90000
    43,'S.KENTON    ', 138.0000,1,   1,   1,   1,1.01633,  26.5468,1.10000,0.90000,1.10000,0.90000
    44,'WMVERNON    ', 138.0000,1,   1,   1,   1,1.00995,  27.1082,1.10000,0.90000,1.10000,0.90000
    45,'N.NEWARK    ', 138.0000,1,   1,   1,   1,1.00901,  27.7086,1.10000,0.90000,1.10000,0.90000
    46,'W.LANCST    ', 138.0000,2,   1,   1,   1,1.01736,  28.5012,1.10000,0.90000,1.10000,0.90000
    47,'CROOKSVL    ', 138.0000,1,   1,   1,   1,1.02442,  29.4013,1.10000,0.90000,1.10000,0.90000
    48,'ZANESVLL    ', 138.0000,1,   1,   1,   1,1.02507,  29.6691,1.10000,0.90000,1.10000,0.90000
    49,'PHILO       ', 138.0000,2,   1,   1,   1,1.02500,  30.3239,1.10000,0.90000,1.10000,0.90000
    50,'WCAMBRDG    ', 138.0000,1,   1,   1,   1,1.01312,  29.1151,1.10000,0.90000,1.10000,0.90000
    51,'NEWCMRST    ', 138.0000,1,   1,   1,   1,0.99645,  27.5990,1.10000,0.90000,1.10000,0.90000
    52,'SCOSHOCT    ', 138.0000,1,   1,   1,   1,0.99175,  27.0827,1.10000,0.90000,1.10000,0.90000
    53,'WOOSTER     ', 138.0000,1,   1,   1,   1,0.98446,  26.4402,1.10000,0.90000,1.10000,0.90000
    54,'TORREY      ', 138.0000,2,   1,   1,   1,0.98453,  26.7166,1.10000,0.90000,1.10000,0.90000
    55,'WAGENHLS    ', 138.0000,2,   1,   1,   1,0.98232,  26.6343,1.10000,0.90000,1.10000,0.90000
    56,'SUNNYSDE    ', 138.0000,2,   1,   1,   1,0.98394,  26.7170,1.10000,0.90000,1.10000,0.90000
    57,'WNWPHIL1    ', 138.0000,1,   1,   1,   1,0.99561,  27.5361,1.10000,0.90000,1.10000,0.90000
    58,'WNWPHIL2    ', 138.0000,1,   1,   1,   1,0.99050,  27.0819,1.10000,0.90000,1.10000,0.90000
    59,'TIDD        ', 138.0000,2,   1,   1,   1,0.98500,  28.7707,1.10000,0.90000,1.10000,0.90000
    60,'SWKAMMER    ', 138.0000,1,   1,   1,   1,0.99498,  30.6862,1.10000,0.90000,1.10000,0.90000
    61,'W.KAMMER    ', 138.0000,2,   1,   1,   1,0.99500,  31.0411,1.10000,0.90000,1.10000,0.90000
    62,'NATRIUM     ', 138.0000,2,   1,   1,   1,1.00205,  31.1594,1.10000,0.90000,1.10000,0.90000
    63,'TIDD        ', 138.0000,1,   1,   1,   1,0.96950,  30.0395,1.10000,0.90000,1.10000,0.90000
    64,'KAMMER      ', 138.0000,1,   1,   1,   1,0.98205,  30.6687,1.10000,0.90000,1.10000,0.90000
    65,'MUSKNGUM    ', 138.0000,2,   1,   1,   1,0.99399,  31.1993,1.10000,0.90000,1.10000,0.90000
    66,'MUSKNGUM    ', 138.0000,2,   1,   1,   1,1.05000,  34.8933,1.10000,0.90000,1.10000,0.90000
    67,'SUMMERFL    ', 138.0000,1,   1,   1,   1,1.02543,  32.8085,1.10000,0.90000,1.10000,0.90000
    68,'SPORN       ', 138.0000,1,   1,   1,   1,0.98954,  30.0049,1.10000,0.90000,1.10000,0.90000
    69,'SPORN       ', 138.0000,3,   1,   1,   1,1.03500,  30.0000,1.10000,0.90000,1.10000,0.90000
    70,'PORTSMTH    ', 138.0000,2,   1,   1,   1,0.99918,  28.7369,1.10000,0.90000,1.10000,0.90000
    71,'NPORTSMT    ', 138.0000,1,   1,   1,   1,0.99682,  29.2029,1.10000,0.90000,1.10000,0.90000
    72,'HILLSBRO    ', 138.0000,2,   1,   1,   1,1.00082,  29.6395,1.10000,0.90000,1.10000,0.90000
    73,'SARGENTS    ', 138.0000,2,   1,   1,   1,0.99100,  29.6896,1.10000,0.90000,1.10000,0.90000
    74,'BELLEFNT    ', 138.0000,2,   1,   1,   1,0.97695,  28.1896,1.10000,0.90000,1.10000,0.90000
    75,'STHPOINT    ', 138.0000,1,   1,   1,   1,0.99138,  28.0191,1.10000,0.90000,1.10000,0.90000
    76,'DARRAH      ', 138.0000,2,   1,   1,   1,0.98228,  26.9630,1.10000,0.90000,1.10000,0.90000
    77,'TURNER      ', 138.0000,2,   1,   1,   1,1.01445,  28.4375,1.10000,0.90000,1.10000,0.90000
    78,'CHEMICAL    ', 138.0000,1,   1,   1,   1,1.01424,  28.1757,1.10000,0.90000,1.10000,0.90000
    79,'CAPITLHL    ', 138.0000,1,   1,   1,   1,1.01911,  28.0994,1.10000,0.90000,1.10000,0.90000
    80,'CABINCRK    ', 138.0000,2,   1,   1,   1,1.02432,  28.7537,1.10000,0.90000,1.10000,0.90000
    81,'KANAWHA     ', 138.0000,1,   1,   1,   1,0.98175,  29.5555,1.10000,0.90000,1.10000,0.90000
    82,'LOGAN       ', 138.0000,1,   1,   1,   1,1.00849,  30.5585,1.10000,0.90000,1.10000,0.90000
    83,'SPRIGG      ', 138.0000,1,   1,   1,   1,1.00447,  31.9606,1.10000,0.90000,1.10000,0.90000
    84,'BETSYLNE    ', 138.0000,1,   1,   1,   1,1.00248,  34.4652,1.10000,0.90000,1.10000,0.90000
    85,'BEAVERCK    ', 138.0000,2,   1,   1,   1,1.00475,  35.8477,1.10000,0.90000,1.10000,0.90000
    86,'HAZARD      ', 138.0000,1,   1,   1,   1,1.00245,  35.1202,1.10000,0.90000,1.10000,0.90000
    87,'PINEVLLE    ', 138.0000,2,   1,   1,   1,1.00709,  35.0840,1.10000,0.90000,1.10000,0.90000
    88,'FREMONT     ', 138.0000,1,   1,   1,   1,1.00085,  38.5174,1.10000,0.90000,1.10000,0.90000
    89,'CLINCHRV    ', 138.0000,2,   1,   1,   1,1.00500,  41.2967,1.10000,0.90000,1.10000,0.90000
    90,'HOLSTON     ', 138.0000,2,   1,   1,   1,0.98500,  38.7218,1.10000,0.90000,1.10000,0.90000
    91,'HOLSTONT    ', 138.0000,2,   1,   1,   1,0.99291,  37.9922,1.10000,0.90000,1.10000,0.90000
    92,'SALTVLLE    ', 138.0000,2,   1,   1,   1,1.00359,  37.3132,1.10000,0.90000,1.10000,0.90000
    93,'TAZEWELL    ', 138.0000,1,   1,   1,   1,1.00232,  34.7801,1.10000,0.90000,1.10000,0.90000
    94,'SWITCHBK    ', 138.0000,1,   1,   1,   1,1.00491,  32.8198,1.10000,0.90000,1.10000,0.90000
    95,'CALDWELL    ', 138.0000,1,   1,   1,   1,1.00061,  31.6898,1.10000,0.90000,1.10000,0.90000
    96,'BAILEYSV    ', 138.0000,1,   1,   1,   1,1.00624,  30.7625,1.10000,0.90000,1.10000,0.90000
    97,'SUNDIAL     ', 138.0000,1,   1,   1,   1,1.01344,  29.6028,1.10000,0.90000,1.10000,0.90000
    98,'BRADLEY     ', 138.0000,1,   1,   1,   1,1.01852,  29.7264,1.10000,0.90000,1.10000,0.90000
    99,'HINTON      ', 138.0000,2,   1,   1,   1,1.01813,  31.0950,1.10000,0.90000,1.10000,0.90000
   100,'GLEN LYN    ', 138.0000,2,   1,   1,   1,1.01700,  32.9735,1.10000,0.90000,1.10000,0.90000
   101,'WYTHE       ', 138.0000,1,   1,   1,   1,1.00601,  34.3935,1.10000,0.90000,1.10000,0.90000
   102,'SMYTHE      ', 138.0000,1,   1,   1,   1,1.00419,  36.2850,1.10000,0.90000,1.10000,0.90000
   103,'CLAYTOR     ', 138.0000,2,   1,   1,   1,1.01000,  32.5275,1.10000,0.90000,1.10000,0.90000
   104,'HANCOCK     ', 138.0000,2,   1,   1,   1,0.99322,  31.1014,1.10000,0.90000,1.10000,0.90000
   105,'ROANOKE     ', 138.0000,2,   1,   1,   1,0.98936,  30.7635,1.10000,0.90000,1.10000,0.90000
   106,'CLOVERDL    ', 138.0000,1,   1,   1,   1,0.98951,  30.4158,1.10000,0.90000,1.10000,0.90000
   107,'REUSENS     ', 138.0000,2,   1,   1,   1,0.98156,  29.3114,1.10000,0.90000,1.10000,0.90000
   108,'BLAINE      ', 138.0000,1,   1,   1,   1,0.98442,  30.9213,1.10000,0.90000,1.10000,0.90000
   109,'FRANKLIN    ', 138.0000,1,   1,   1,   1,0.98227,  31.0068,1.10000,0.90000,1.10000,0.90000
   110,'FIELDALE    ', 138.0000,2,   1,   1,   1,0.97778,  31.4077,1.10000,0.90000,1.10000,0.90000
   111,'DANRIVER    ', 138.0000,2,   1,   1,   1,0.98000,  33.5331,1.10000,0.90000,1.10000,0.90000
   112,'DANVILLE    ', 138.0000,2,   1,   1,   1,0.96700,  30.1903,1.10000,0.90000,1.10000,0.90000
   113,'DEER CRK    ', 138.0000,2,   1,   1,   1,1.00945,  29.5288,1.10000,0.90000,1.10000,0.90000
   114,'WMEDFORD    ', 138.0000,1,   1,   1,   1,0.99062,  29.0130,1.10000,0.90000,1.10000,0.90000
   115,'MEDFORD     ', 138.0000,1,   1,   1,   1,0.99073,  28.9885,1.10000,0.90000,1.10000,0.90000
   116,'KYGERCRK    ', 138.0000,2,   1,   1,   1,0.98956,  29.7937,1.10000,0.90000,1.10000,0.90000
   117,'COREY       ', 138.0000,1,   1,   1,   1,0.98090,  29.3332,1.10000,0.90000,1.10000,0.90000
   118,'WHUNTNGD    ', 138.0000,1,   1,   1,   1,0.98427,  27.3143,1.10000,0.90000,1.10000,0.90000
0 / END OF BUS DATA, BEGIN LOAD DATA
     1,'1 ',1,   1,   1,    24.584,    13.016,     0.000,     0.000,     0.000,     0.000,   1,1,0
     2,'1 ',1,   1,   1,     9.641,     4.338,     0.000,     0.000,     0.000,     0.000,   1,1,0
     2,'PV',1,   1,   1,    -0.000,     0.000,     0.000,     0.000,     0.000,     0.000,   1,1,0
     3,'1 ',1,   1,   1,    18.800,     4.820,     0.000,     0.000,     0.000,     0.000,   1,1,0
     3,'PV',1,   1,   1,    -0.000,     0.000,     0.000,     0.000,     0.000,     0.000,   1,1,0
     4,'1 ',1,   1,   1,    18.800,     5.785,     0.000,     0.000,     0.000,     0.000,   1,1,0
     6,'1 ',1,   1,   1,    25.066,    10.605,     0.000,     0.000,     0.000,     0.000,   1,1,0
     7,'1 ',1,   1,   1,     9.159,     0.964,     0.000,     0.000,     0.000,     0.000,   1,1,0
     7,'PV',1,   1,   1,    -0.000,     0.000,     0.000,     0.000,     0.000,     0.000,   1,1,0
     8,'1 ',1,   1,   1,    13.498,     0.000,     0.000,     0.000,     0.000,     0.000,   1,1,0
    11,'1 ',1,   1,   1,    33.743,    11.087,     0.000,     0.000,     0.000,     0.000,   1,1,0
    11,'PV',1,   1,   1,    -0.000,     0.000,     0.000,     0.000,     0.000,     0.000,   1,1,0
    12,'1 ',1,   1,   1,    22.656,     4.820,     0.000,     0.000,     0.000,     0.000,   1,1,0
    13,'1 ',1,   1,   1,    16.390,     7.713,     0.000,     0.000,     0.000,     0.000,   1,1,0
    13,'PV',1,   1,   1,    -0.000,     0.000,     0.000,     0.000,     0.000,     0.000,   1,1,0
    14,'1 ',1,   1,   1,     6.749,     0.482,     0.000,     0.000,     0.000,     0.000,   1,1,0
    14,'PV',1,   1,   1,    -0.000,     0.000,     0.000,     0.000,     0.000,     0.000,   1,1,0
    15,'1 ',1,   1,   1,    43.384,    14.461,     0.000,     0.000,     0.000,     0.000,   1,1,0
    16,'1 ',1,   1,   1,    12.051,     4.820,     0.000,     0.000,     0.000,     0.000,   1,1,0
    16,'PV',1,   1,   1,    -0.000,     0.000,     0.000,     0.000,     0.000,     0.000,   1,1,0
    17,'1 ',1,   1,   1,     5.303,     1.446,     0.000,     0.000,     0.000,     0.000,   1,1,0
    17,'PV',1,   1,   1,    -0.000,     0.000,     0.000,     0.000,     0.000,     0.000,   1,1,0
    18,'1 ',1,   1,   1,    28.923,    16.390,     0.000,     0.000,     0.000,     0.000,   1,1,0
    19,'1 ',1,   1,   1,    21.692,    12.051,     0.000,     0.000,     0.000,     0.000,   1,1,0
    20,'1 ',1,   1,   1,     8.677,     1.446,     0.000,     0.000,     0.000,     0.000,   1,1,0
    20,'PV',1,   1,   1,    -0.000,     0.000,     0.000,     0.000,     0.000,     0.000,   1,1,0
    21,'1 ',1,   1,   1,     6.749,     3.856,     0.000,     0.000,     0.000,     0.000,   1,1,0
    21,'PV',1,   1,   1,    -0.000,     0.000,     0.000,     0.000,     0.000,     0.000,   1,1,0
    22,'1 ',1,   1,   1,     4.820,     2.410,     0.000,     0.000,     0.000,     0.000,   1,1,0
    22,'PV',1,   1,   1,    -0.000,     0.000,     0.000,     0.000,     0.000,     0.000,   1,1,0
    23,'1 ',1,   1,   1,     3.374,     1.446,     0.000,     0.000,     0.000,     0.000,   1,1,0
    23,'PV',1,   1,   1,    -0.000,     0.000,     0.000,     0.000,     0.000,     0.000,   1,1,0
    24,'1 ',1,   1,   1,     6.267,     0.000,     0.000,     0.000,     0.000,     0.000,   1,1,0
    27,'1 ',1,   1,   1,    34.226,     6.267,     0.000,     0.000,     0.000,     0.000,   1,1,0
    28,'1 ',1,   1,   1,     8.195,     3.374,     0.000,     0.000,     0.000,     0.000,   1,1,0
    28,'PV',1,   1,   1,    -0.000,     0.000,     0.000,     0.000,     0.000,     0.000,   1,1,0
    29,'1 ',1,   1,   1,    11.569,     1.928,     0.000,     0.000,     0.000,     0.000,   1,1,0
    29,'PV',1,   1,   1,    -0.000,     0.000,     0.000,     0.000,     0.000,     0.000,   1,1,0
    31,'1 ',1,   1,   1,    20.728,    13.016,     0.000,     0.000,     0.000,     0.000,   1,1,0
    32,'1 ',1,   1,   1,    28.441,    11.087,     0.000,     0.000,     0.000,     0.000,   1,1,0
    33,'1 ',1,   1,   1,    11.087,     4.338,     0.000,     0.000,     0.000,     0.000,   1,1,0
    33,'PV',1,   1,   1,    -0.000,     0.000,     0.000,     0.000,     0.000,     0.000,   1,1,0
    34,'1 ',1,   1,   1,    28.441,    12.534,     0.000,     0.000,     0.000,     0.000,   1,1,0
    35,'1 ',1,   1,   1,    15.907,     4.338,     0.000,     0.000,     0.000,     0.000,   1,1,0
    35,'PV',1,   1,   1,    -0.000,     0.000,     0.000,     0.000,     0.000,     0.000,   1,1,0
    36,'1 ',1,   1,   1,    14.943,     8.195,     0.000,     0.000,     0.000,     0.000,   1,1,0
    39,'1 ',1,   1,   1,    12.909,     5.259,     0.000,     0.000,     0.000,     0.000,   1,1,0
    39,'PV',1,   1,   1,    -0.000,     0.000,     0.000,     0.000,     0.000,     0.000,   1,1,0
    40,'1 ',1,   1,   1,    31.554,    10.996,     0.000,     0.000,     0.000,     0.000,   1,1,0
    41,'1 ',1,   1,   1,    17.690,     4.781,     0.000,     0.000,     0.000,     0.000,   1,1,0
    41,'PV',1,   1,   1,    -0.000,     0.000,     0.000,     0.000,     0.000,     0.000,   1,1,0
    42,'1 ',1,   1,   1,    45.896,    10.996,     0.000,     0.000,     0.000,     0.000,   1,1,0
    43,'1 ',1,   1,   1,     8.606,     3.347,     0.000,     0.000,     0.000,     0.000,   1,1,0
    43,'PV',1,   1,   1,    -0.000,     0.000,     0.000,     0.000,     0.000,     0.000,   1,1,0
    44,'1 ',1,   1,   1,     7.650,     3.825,     0.000,     0.000,     0.000,     0.000,   1,1,0
    44,'PV',1,   1,   1,    -0.000,     0.000,     0.000,     0.000,     0.000,     0.000,   1,1,0
    45,'1 ',1,   1,   1,    25.339,    10.518,     0.000,     0.000,     0.000,     0.000,   1,1,0
    45,'PV',1,   1,   1,    -0.000,     0.000,     0.000,     0.000,     0.000,     0.000,   1,1,0
    46,'1 ',1,   1,   1,    13.387,     4.781,     0.000,     0.000,     0.000,     0.000,   1,1,0
    47,'1 ',1,   1,   1,    16.255,     0.000,     0.000,     0.000,     0.000,     0.000,   1,1,0
    47,'PV',1,   1,   1,    -0.000,     0.000,     0.000,     0.000,     0.000,     0.000,   1,1,0
    48,'1 ',1,   1,   1,     9.562,     5.259,     0.000,     0.000,     0.000,     0.000,   1,1,0
    48,'PV',1,   1,   1,    -0.000,     0.000,     0.000,     0.000,     0.000,     0.000,   1,1,0
    49,'1 ',1,   1,   1,    41.593,    14.343,     0.000,     0.000,     0.000,     0.000,   1,1,0
    50,'1 ',1,   1,   1,     8.128,     1.912,     0.000,     0.000,     0.000,     0.000,   1,1,0
    50,'PV',1,   1,   1,    -0.000,     0.000,     0.000,     0.000,     0.000,     0.000,   1,1,0
    51,'1 ',1,   1,   1,     8.128,     3.825,     0.000,     0.000,     0.000,     0.000,   1,1,0
    51,'PV',1,   1,   1,    -0.000,     0.000,     0.000,     0.000,     0.000,     0.000,   1,1,0
    52,'1 ',1,   1,   1,     8.606,     2.390,     0.000,     0.000,     0.000,     0.000,   1,1,0
    52,'PV',1,   1,   1,    -0.000,     0.000,     0.000,     0.000,     0.000,     0.000,   1,1,0
    53,'1 ',1,   1,   1,    10.996,     5.259,     0.000,     0.000,     0.000,     0.000,   1,1,0
    53,'PV',1,   1,   1,    -0.000,     0.000,     0.000,     0.000,     0.000,     0.000,   1,1,0
    54,'1 ',1,   1,   1,    54.024,    15.299,     0.000,     0.000,     0.000,     0.000,   1,1,0
    55,'1 ',1,   1,   1,    30.120,    10.518,     0.000,     0.000,     0.000,     0.000,   1,1,0
    56,'1 ',1,   1,   1,    40.160,     8.606,     0.000,     0.000,     0.000,     0.000,   1,1,0
    57,'1 ',1,   1,   1,     5.737,     1.434,     0.000,     0.000,     0.000,     0.000,   1,1,0
    57,'PV',1,   1,   1,    -0.000,     0.000,     0.000,     0.000,     0.000,     0.000,   1,1,0
    58,'1 ',1,   1,   1,     5.737,     1.434,     0.000,     0.000,     0.000,     0.000,   1,1,0
    58,'PV',1,   1,   1,    -0.000,     0.000,     0.000,     0.000,     0.000,     0.000,   1,1,0
    59,'1 ',1,   1,   1,   132.428,    54.024,     0.000,     0.000,     0.000,     0.000,   1,1,0
    60,'1 ',1,   1,   1,    37.292,     1.434,     0.000,     0.000,     0.000,     0.000,   1,1,0
    60,'PV',1,   1,   1,    -0.000,     0.000,     0.000,     0.000,     0.000,     0.000,   1,1,0
    62,'1 ',1,   1,   1,    36.813,     6.693,     0.000,     0.000,     0.000,     0.000,   1,1,0
    66,'1 ',1,   1,   1,    18.646,     8.606,     0.000,     0.000,     0.000,     0.000,   1,1,0
    67,'1 ',1,   1,   1,    13.387,     3.347,     0.000,     0.000,     0.000,     0.000,   1,1,0
    67,'PV',1,   1,   1,    -0.000,     0.000,     0.000,     0.000,     0.000,     0.000,   1,1,0
    70,'1 ',1,   1,   1,    31.554,     9.562,     0.000,     0.000,     0.000,     0.000,   1,1,0
    72,'1 ',1,   1,   1,     5.737,     0.000,     0.000,     0.000,     0.000,     0.000,   1,1,0
    73,'1 ',1,   1,   1,     2.869,     0.000,     0.000,     0.000,     0.000,     0.000,   1,1,0
    74,'1 ',1,   1,   1,    32.511,    12.909,     0.000,     0.000,     0.000,     0.000,   1,1,0
    75,'1 ',1,   1,   1,    22.471,     5.259,     0.000,     0.000,     0.000,     0.000,   1,1,0
    75,'PV',1,   1,   1,    -0.000,     0.000,     0.000,     0.000,     0.000,     0.000,   1,1,0
    76,'1 ',1,   1,   1,    32.682,    17.303,     0.000,     0.000,     0.000,     0.000,   1,1,0
    77,'1 ',1,   1,   1,    29.318,    13.457,     0.000,     0.000,     0.000,     0.000,   1,1,0
    78,'1 ',1,   1,   1,    34.125,    12.496,     0.000,     0.000,     0.000,     0.000,   1,1,0
    78,'PV',1,   1,   1,    -0.000,     0.000,     0.000,     0.000,     0.000,     0.000,   1,1,0
    79,'1 ',1,   1,   1,    18.745,    15.380,     0.000,     0.000,     0.000,     0.000,   1,1,0
    79,'PV',1,   1,   1,    -0.000,     0.000,     0.000,     0.000,     0.000,     0.000,   1,1,0
    80,'1 ',1,   1,   1,    62.481,    12.496,     0.000,     0.000,     0.000,     0.000,   1,1,0
    82,'1 ',1,   1,   1,    25.954,    12.976,     0.000,     0.000,     0.000,     0.000,   1,1,0
    82,'PV',1,   1,   1,    -0.000,     0.000,     0.000,     0.000,     0.000,     0.000,   1,1,0
    83,'1 ',1,   1,   1,     9.613,     4.806,     0.000,     0.000,     0.000,     0.000,   1,1,0
    83,'PV',1,   1,   1,    -0.000,     0.000,     0.000,     0.000,     0.000,     0.000,   1,1,0
    84,'1 ',1,   1,   1,     5.287,     3.364,     0.000,     0.000,     0.000,     0.000,   1,1,0
    84,'PV',1,   1,   1,    -0.000,     0.000,     0.000,     0.000,     0.000,     0.000,   1,1,0
    85,'1 ',1,   1,   1,    11.535,     7.209,     0.000,     0.000,     0.000,     0.000,   1,1,0
    86,'1 ',1,   1,   1,    10.093,     4.806,     0.000,     0.000,     0.000,     0.000,   1,1,0
    86,'PV',1,   1,   1,    -0.000,     0.000,     0.000,     0.000,     0.000,     0.000,   1,1,0
    88,'1 ',1,   1,   1,    23.070,     4.806,     0.000,     0.000,     0.000,     0.000,   1,1,0
    88,'PV',1,   1,   1,    -0.000,     0.000,     0.000,     0.000,     0.000,     0.000,   1,1,0
    90,'1 ',1,   1,   1,    78.341,    20.187,     0.000,     0.000,     0.000,     0.000,   1,1,0
    91,'1 ',1,   1,   1,     4.806,     0.000,     0.000,     0.000,     0.000,     0.000,   1,1,0
    92,'1 ',1,   1,   1,    31.240,     4.806,     0.000,     0.000,     0.000,     0.000,   1,1,0
    93,'1 ',1,   1,   1,     5.767,     3.364,     0.000,     0.000,     0.000,     0.000,   1,1,0
    93,'PV',1,   1,   1,    -0.000,     0.000,     0.000,     0.000,     0.000,     0.000,   1,1,0
    94,'1 ',1,   1,   1,    14.418,     7.690,     0.000,     0.000,     0.000,     0.000,   1,1,0
    94,'PV',1,   1,   1,    -0.000,     0.000,     0.000,     0.000,     0.000,     0.000,   1,1,0
    95,'1 ',1,   1,   1,    20.187,    14.899,     0.000,     0.000,     0.000,     0.000,   1,1,0
    95,'PV',1,   1,   1,    -0.000,     0.000,     0.000,     0.000,     0.000,     0.000,   1,1,0
    96,'1 ',1,   1,   1,    18.264,     7.209,     0.000,     0.000,     0.000,     0.000,   1,1,0
    96,'PV',1,   1,   1,    -0.000,     0.000,     0.000,     0.000,     0.000,     0.000,   1,1,0
    97,'1 ',1,   1,   1,     7.209,     4.326,     0.000,     0.000,     0.000,     0.000,   1,1,0
    97,'PV',1,   1,   1,    -0.000,     0.000,     0.000,     0.000,     0.000,     0.000,   1,1,0
    98,'1 ',1,   1,   1,    16.341,     3.845,     0.000,     0.000,     0.000,     0.000,   1,1,0
    98,'PV',1,   1,   1,    -0.000,     0.000,     0.000,     0.000,     0.000,     0.000,   1,1,0
    99,'1 ',1,   1,   1,    20.187,     0.000,     0.000,     0.000,     0.000,     0.000,   1,1,0
   100,'1 ',1,   1,   1,    17.783,     8.651,     0.000,     0.000,     0.000,     0.000,   1,1,0
   101,'1 ',1,   1,   1,    10.574,     7.209,     0.000,     0.000,     0.000,     0.000,   1,1,0
   101,'PV',1,   1,   1,    -0.000,     0.000,     0.000,     0.000,     0.000,     0.000,   1,1,0
   102,'1 ',1,   1,   1,     2.403,     1.442,     0.000,     0.000,     0.000,     0.000,   1,1,0
   102,'PV',1,   1,   1,    -0.000,     0.000,     0.000,     0.000,     0.000,     0.000,   1,1,0
   103,'1 ',1,   1,   1,    11.055,     7.690,     0.000,     0.000,     0.000,     0.000,   1,1,0
   104,'1 ',1,   1,   1,    18.264,    12.016,     0.000,     0.000,     0.000,     0.000,   1,1,0
   105,'1 ',1,   1,   1,    14.899,    12.496,     0.000,     0.000,     0.000,     0.000,   1,1,0
   106,'1 ',1,   1,   1,    20.666,     7.690,     0.000,     0.000,     0.000,     0.000,   1,1,0
   106,'PV',1,   1,   1,    -0.000,     0.000,     0.000,     0.000,     0.000,     0.000,   1,1,0
   107,'1 ',1,   1,   1,    24.031,     5.767,     0.000,     0.000,     0.000,     0.000,   1,1,0
   108,'1 ',1,   1,   1,     0.961,     0.481,     0.000,     0.000,     0.000,     0.000,   1,1,0
   108,'PV',1,   1,   1,    -0.000,     0.000,     0.000,     0.000,     0.000,     0.000,   1,1,0
   109,'1 ',1,   1,   1,     3.845,     1.442,     0.000,     0.000,     0.000,     0.000,   1,1,0
   109,'PV',1,   1,   1,    -0.000,     0.000,     0.000,     0.000,     0.000,     0.000,   1,1,0
   110,'1 ',1,   1,   1,    18.745,    14.418,     0.000,     0.000,     0.000,     0.000,   1,1,0
   112,'1 ',1,   1,   1,    32.682,     6.248,     0.000,     0.000,     0.000,     0.000,   1,1,0
   113,'1 ',1,   1,   1,     2.884,     0.000,     0.000,     0.000,     0.000,     0.000,   1,1,0
   114,'1 ',1,   1,   1,     3.845,     1.442,     0.000,     0.000,     0.000,     0.000,   1,1,0
   114,'PV',1,   1,   1,    -0.000,     0.000,     0.000,     0.000,     0.000,     0.000,   1,1,0
   115,'1 ',1,   1,   1,    10.574,     3.364,     0.000,     0.000,     0.000,     0.000,   1,1,0
   115,'PV',1,   1,   1,    -0.000,     0.000,     0.000,     0.000,     0.000,     0.000,   1,1,0
   116,'1 ',1,   1,   1,    88.435,     0.000,     0.000,     0.000,     0.000,     0.000,   1,1,0
   117,'1 ',1,   1,   1,     9.613,     3.845,     0.000,     0.000,     0.000,     0.000,   1,1,0
   117,'PV',1,   1,   1,    -0.000,     0.000,     0.000,     0.000,     0.000,     0.000,   1,1,0
   118,'1 ',1,   1,   1,    15.861,     7.209,     0.000,     0.000,     0.000,     0.000,   1,1,0
   118,'PV',1,   1,   1,    -0.000,     0.000,     0.000,     0.000,     0.000,     0.000,   1,1,0
0 / END OF LOAD DATA, BEGIN FIXED SHUNT DATA
0 / END OF FIXED SHUNT DATA, BEGIN GENERATOR DATA
     1,'1 ',     0.000,     0.000,    60.000,   -38.000,0.95500,     0,   100.000, 0.00000E+0, 1.00000E+0, 0.00000E+0, 0.00000E+0,1.00000,0,  100.0,    75.000,    16.000,   1,1.0000
     4,'1 ',    18.378,   -27.087,    54.000,   -36.000,0.99800,     0,   100.000, 0.00000E+0, 1.00000E+0, 0.00000E+0, 0.00000E+0,1.00000,1,  100.0,    75.000,    15.000,   1,1.0000
     6,'1 ',    18.378,    -3.133,    54.000,   -36.000,0.99000,     0,   100.000, 0.00000E+0, 1.00000E+0, 0.00000E+0, 0.00000E+0,1.00000,1,  100.0,    75.000,    15.000,   1,1.0000
     8,'1 ',    18.378,   -25.122,    54.000,   -36.000,1.01500,     0,   100.000, 0.00000E+0, 1.00000E+0, 0.00000E+0, 0.00000E+0,1.00000,1,  100.0,    75.000,    15.000,   1,1.0000
    10,'1 ',   298.389,   -71.825,   388.000,  -290.000,1.05000,     0,   100.000, 0.00000E+0, 1.00000E+0, 0.00000E+0, 0.00000E+0,1.00000,1,  100.0,   629.000,   256.000,   1,1.0000
    12,'1 ',     0.000,     0.000,   120.000,  -105.000,0.99000,     0,   100.000, 0.00000E+0, 1.00000E+0, 0.00000E+0, 0.00000E+0,1.00000,0,  100.0,   185.000,    61.667,   1,1.0000
    15,'1 ',     0.000,     0.000,    54.000,   -36.000,0.97000,     0,   100.000, 0.00000E+0, 1.00000E+0, 0.00000E+0, 0.00000E+0,1.00000,0,  100.0,    75.000,    15.000,   1,1.0000
    18,'1 ',     0.000,     0.000,    54.000,   -36.000,0.97300,     0,   100.000, 0.00000E+0, 1.00000E+0, 0.00000E+0, 0.00000E+0,1.00000,0,  100.0,    75.000,    18.750,   1,1.0000
    19,'1 ',    18.378,   -36.000,    54.000,   -36.000,0.96200,     0,   100.000, 0.00000E+0, 1.00000E+0, 0.00000E+0, 0.00000E+0,1.00000,1,  100.0,    75.000,    15.000,   1,1.0000
    24,'1 ',    18.420,   -38.000,    60.000,   -38.000,0.99200,     0,   100.000, 0.00000E+0, 1.00000E+0, 0.00000E+0, 0.00000E+0,1.00000,1,  100.0,    75.000,    15.000,   1,1.0000
    25,'1 ',     0.000,     0.000,   263.000,  -164.000,1.05000,     0,   100.000, 0.00000E+0, 1.00000E+0, 0.00000E+0, 0.00000E+0,1.00000,0,  100.0,   320.000,   106.632,   1,1.0000
    26,'1 ',   174.220,     6.065,   250.000,  -215.000,1.01500,     0,   100.000, 0.00000E+0, 1.00000E+0, 0.00000E+0, 0.00000E+0,1.00000,1,  100.0,   450.000,   148.000,   1,1.0000
    27,'1 ',     0.000,     0.000,    54.000,   -36.000,0.96800,     0,   100.000, 0.00000E+0, 1.00000E+0, 0.00000E+0, 0.00000E+0,1.00000,0,  100.0,    75.000,    15.000,   1,1.0000
    31,'1 ',    34.993,   -53.540,    90.000,   -60.000,0.96700,     0,   100.000, 0.00000E+0, 1.00000E+0, 0.00000E+0, 0.00000E+0,1.00000,1,  100.0,   107.000,    29.000,   1,1.0000
    32,'1 ',     0.000,     0.000,    60.000,   -38.000,0.96300,     0,   100.000, 0.00000E+0, 1.00000E+0, 0.00000E+0, 0.00000E+0,1.00000,0,  100.0,    75.000,    18.793,   1,1.0000
    34,'1 ',     0.000,     0.000,    60.000,   -38.000,0.98400,     0,   100.000, 0.00000E+0, 1.00000E+0, 0.00000E+0, 0.00000E+0,1.00000,0,  100.0,    75.000,    15.000,   1,1.0000
    36,'1 ',     0.000,     0.000,    60.000,   -38.000,0.98000,     0,   100.000, 0.00000E+0, 1.00000E+0, 0.00000E+0, 0.00000E+0,1.00000,0,  100.0,    75.000,    18.750,   1,1.0000
    40,'1 ',     0.000,     0.000,    60.000,   -38.000,0.97000,     0,   100.000, 0.00000E+0, 1.00000E+0, 0.00000E+0, 0.00000E+0,1.00000,0,  100.0,    75.000,    15.000,   1,1.0000
    42,'1 ',     0.000,     0.000,    54.000,   -36.000,0.98500,     0,   100.000, 0.00000E+0, 1.00000E+0, 0.00000E+0, 0.00000E+0,1.00000,0,  100.0,    75.000,    15.000,   1,1.0000
    46,'1 ',     0.000,     0.000,    92.000,  -110.000,1.00500,     0,   100.000, 0.00000E+0, 1.00000E+0, 0.00000E+0, 0.00000E+0,1.00000,0,  100.0,   119.000,    33.000,   1,1.0000
    49,'1 ',    99.292,   -10.548,   253.000,  -152.000,1.02500,     0,   100.000, 0.00000E+0, 1.00000E+0, 0.00000E+0, 0.00000E+0,1.00000,1,  100.0,   308.000,    84.000,   1,1.0000
    54,'1 ',     0.000,     0.000,   116.000,   -90.000,0.95500,     0,   100.000, 0.00000E+0, 1.00000E+0, 0.00000E+0, 0.00000E+0,1.00000,0,  100.0,   148.000,    42.000,   1,1.0000
    55,'1 ',     0.000,     0.000,    54.000,   -36.000,0.95200,     0,   100.000, 0.00000E+0, 1.00000E+0, 0.00000E+0, 0.00000E+0,1.00000,0,  100.0,    75.000,    18.750,   1,1.0000
    56,'1 ',     0.000,     0.000,    54.000,   -36.000,0.95400,     0,   100.000, 0.00000E+0, 1.00000E+0, 0.00000E+0, 0.00000E+0,1.00000,0,  100.0,    75.000,    18.750,   1,1.0000
    59,'1 ',    83.288,   -37.376,   158.000,  -126.000,0.98500,     0,   100.000, 0.00000E+0, 1.00000E+0, 0.00000E+0, 0.00000E+0,1.00000,1,  100.0,   257.000,    70.000,   1,1.0000
    61,'1 ',    84.921,   -33.978,   161.000,  -120.000,0.99500,     0,   100.000, 0.00000E+0, 1.00000E+0, 0.00000E+0, 0.00000E+0,1.00000,1,  100.0,   260.000,    72.000,   1,1.0000
    62,'1 ',     0.000,     0.000,    54.000,   -36.000,0.99800,     0,   100.000, 0.00000E+0, 1.00000E+0, 0.00000E+0, 0.00000E+0,1.00000,0,  100.0,    75.000,    18.750,   1,1.0000
    65,'1 ',     0.000,     0.000,   275.000,  -195.000,1.00500,     0,   100.000, 0.00000E+0, 1.00000E+0, 0.00000E+0, 0.00000E+0,1.00000,0,  100.0,   526.000,   115.000,   1,1.0000
    66,'1 ',   482.244,    30.469,   316.000,  -185.000,1.05000,     0,   100.000, 0.00000E+0, 1.00000E+0, 0.00000E+0, 0.00000E+0,1.00000,1,  100.0,   572.000,   235.000,   1,1.0000
    69,'1 ',    96.595,   -25.677,   400.000,  -400.000,1.03500,     0,   100.000, 0.00000E+0, 1.00000E+0, 0.00000E+0, 0.00000E+0,1.00000,1,  100.0,   500.000,     0.000,   1,1.0000
    70,'1 ',     0.000,     0.000,    60.000,   -38.000,0.98400,     0,   100.000, 0.00000E+0, 1.00000E+0, 0.00000E+0, 0.00000E+0,1.00000,0,  100.0,    75.000,    18.730,   1,1.0000
    72,'1 ',     0.000,     0.000,    60.000,   -38.000,0.98000,     0,   100.000, 0.00000E+0, 1.00000E+0, 0.00000E+0, 0.00000E+0,1.00000,0,  100.0,    75.000,    16.000,   1,1.0000
    73,'1 ',    18.378,   -16.160,    54.000,   -36.000,0.99100,     0,   100.000, 0.00000E+0, 1.00000E+0, 0.00000E+0, 0.00000E+0,1.00000,1,  100.0,    75.000,    15.000,   1,1.0000
    74,'1 ',    18.378,   -36.000,    54.000,   -36.000,0.95800,     0,   100.000, 0.00000E+0, 1.00000E+0, 0.00000E+0, 0.00000E+0,1.00000,1,  100.0,    75.000,    15.000,   1,1.0000
    76,'1 ',     0.000,     0.000,    54.000,   -36.000,0.94300,     0,   100.000, 0.00000E+0, 1.00000E+0, 0.00000E+0, 0.00000E+0,1.00000,0,  100.0,    75.000,    18.750,   1,1.0000
    77,'1 ',     0.000,     0.000,    54.000,   -36.000,1.00600,     0,   100.000, 0.00000E+0, 1.00000E+0, 0.00000E+0, 0.00000E+0,1.00000,0,  100.0,    75.000,    18.750,   1,1.0000
    80,'1 ',     0.000,     0.000,   280.000,  -251.000,1.04000,     0,   100.000, 0.00000E+0, 1.00000E+0, 0.00000E+0, 0.00000E+0,1.00000,0,  100.0,   627.000,   225.000,   1,1.0000
    85,'1 ',     0.000,     0.000,    60.000,   -38.000,0.98500,     0,   100.000, 0.00000E+0, 1.00000E+0, 0.00000E+0, 0.00000E+0,1.00000,0,  100.0,    75.000,    16.000,   1,1.0000
    87,'1 ',     0.000,     0.000,    71.000,   -55.000,1.01500,     0,   100.000, 0.00000E+0, 1.00000E+0, 0.00000E+0, 0.00000E+0,1.00000,0,  100.0,   104.000,    34.634,   1,1.0000
    89,'1 ',   371.375,   -39.244,   354.000,  -165.000,1.00500,     0,   100.000, 0.00000E+0, 1.00000E+0, 0.00000E+0, 0.00000E+0,1.00000,1,  100.0,   555.000,   245.000,   1,1.0000
    90,'1 ',    18.441,   -12.001,    60.000,   -38.000,0.98500,     0,   100.000, 0.00000E+0, 1.00000E+0, 0.00000E+0, 0.00000E+0,1.00000,1,  100.0,    75.000,    15.000,   1,1.0000
    91,'1 ',     0.000,     0.000,    60.000,   -38.000,0.98000,     0,   100.000, 0.00000E+0, 1.00000E+0, 0.00000E+0, 0.00000E+0,1.00000,0,  100.0,    75.000,    18.814,   1,1.0000
    92,'1 ',     0.000,     0.000,    60.000,   -38.000,0.99000,     0,   100.000, 0.00000E+0, 1.00000E+0, 0.00000E+0, 0.00000E+0,1.00000,0,  100.0,    75.000,    18.814,   1,1.0000
    99,'1 ',     0.000,     0.000,    60.000,   -38.000,1.01000,     0,   100.000, 0.00000E+0, 1.00000E+0, 0.00000E+0, 0.00000E+0,1.00000,0,  100.0,    75.000,    18.750,   1,1.0000
   100,'1 ',   115.047,    37.800,   324.700,  -151.700,1.01700,     0,   100.000, 0.00000E+0, 1.00000E+0, 0.00000E+0, 0.00000E+0,1.00000,1,  100.0,   352.000,    97.000,   1,1.0000
   103,'1 ',    45.698,    17.463,   105.000,   -88.000,1.01000,     0,   100.000, 0.00000E+0, 1.00000E+0, 0.00000E+0, 0.00000E+0,1.00000,1,  100.0,   140.000,    38.000,   1,1.0000
   104,'1 ',     0.000,     0.000,    54.000,   -36.000,0.97100,     0,   100.000, 0.00000E+0, 1.00000E+0, 0.00000E+0, 0.00000E+0,1.00000,0,  100.0,    75.000,    18.750,   1,1.0000
   105,'1 ',     0.000,     0.000,    54.000,   -36.000,0.96500,     0,   100.000, 0.00000E+0, 1.00000E+0, 0.00000E+0, 0.00000E+0,1.00000,0,  100.0,    75.000,    18.750,   1,1.0000
   107,'1 ',     0.000,     0.000,    60.000,   -38.000,0.95200,     0,   100.000, 0.00000E+0, 1.00000E+0, 0.00000E+0, 0.00000E+0,1.00000,0,  100.0,    75.000,    15.000,   1,1.0000
   110,'1 ',     0.000,     0.000,    60.000,   -38.000,0.97300,     0,   100.000, 0.00000E+0, 1.00000E+0, 0.00000E+0, 0.00000E+0,1.00000,0,  100.0,    75.000,    18.730,   1,1.0000
   111,'1 ',    44.393,   -10.142,   100.000,   -75.000,0.98000,     0,   100.000, 0.00000E+0, 1.00000E+0, 0.00000E+0, 0.00000E+0,1.00000,1,  100.0,   136.000,    38.000,   1,1.0000
   112,'1 ',     0.000,     0.000,    60.000,   -38.000,0.97500,     0,   100.000, 0.00000E+0, 1.00000E+0, 0.00000E+0, 0.00000E+0,1.00000,0,  100.0,    75.000,    18.730,   1,1.0000
   113,'1 ',     0.000,     0.000,    60.000,   -38.000,0.99300,     0,   100.000, 0.00000E+0, 1.00000E+0, 0.00000E+0, 0.00000E+0,1.00000,0,  100.0,    75.000,    18.730,   1,1.0000
   116,'1 ',     0.000,     0.000,    60.000,   -38.000,1.00500,     0,   100.000, 0.00000E+0, 1.00000E+0, 0.00000E+0, 0.00000E+0,1.00000,0,  100.0,    75.000,    18.750,   1,1.0000
0 / END OF GENERATOR DATA, BEGIN BRANCH DATA
     1,     2,'1 ', 3.03000E-2, 9.99000E-2,   0.02540,   60.00,   90.00,  135.00,  0.00000,  0.00000,  0.00000,  0.00000,1,1,   0.00,   1,1.0000
     1,     3,'1 ', 1.29000E-2, 4.24000E-2,   0.01082,  129.00,  194.00,  290.00,  0.00000,  0.00000,  0.00000,  0.00000,1,1,   0.00,   1,1.0000
     2,    12,'1 ', 1.87000E-2, 6.16000E-2,   0.01572,  123.00,  185.00,  277.00,  0.00000,  0.00000,  0.00000,  0.00000,1,1,   0.00,   1,1.0000
     3,     5,'1 ', 2.41000E-2, 1.08000E-1,   0.02840,  240.00,  360.00,  540.00,  0.00000,  0.00000,  0.00000,  0.00000,1,1,   0.00,   1,1.0000
     3,    12,'1 ', 4.84000E-2, 1.60000E-1,   0.04060,   60.00,   90.00,  135.00,  0.00000,  0.00000,  0.00000,  0.00000,1,1,   0.00,   1,1.0000
     4,     5,'1 ', 1.76000E-3, 7.98000E-3,   0.00210,  342.00,  513.00,  770.00,  0.00000,  0.00000,  0.00000,  0.00000,1,1,   0.00,   1,1.0000
     4,    11,'1 ', 2.09000E-2, 6.88000E-2,   0.01748,  234.00,  351.00,  527.00,  0.00000,  0.00000,  0.00000,  0.00000,1,1,   0.00,   1,1.0000
     5,     6,'1 ', 1.19000E-2, 5.40000E-2,   0.01426,  306.00,  459.00,  689.00,  0.00000,  0.00000,  0.00000,  0.00000,1,1,   0.00,   1,1.0000
     5,    11,'1 ', 2.03000E-2, 6.82000E-2,   0.01738,  276.00,  414.00,  621.00,  0.00000,  0.00000,  0.00000,  0.00000,1,1,   0.00,   1,1.0000
     6,     7,'1 ', 4.59000E-3, 2.08000E-2,   0.00550,  174.00,  261.00,  392.00,  0.00000,  0.00000,  0.00000,  0.00000,1,1,   0.00,   1,1.0000
     7,    12,'1 ', 8.62000E-3, 3.40000E-2,   0.00874,  123.00,  185.00,  277.00,  0.00000,  0.00000,  0.00000,  0.00000,1,1,   0.00,   1,1.0000
     8,     9,'1 ', 2.44000E-3, 3.05000E-2,   1.16200, 1380.00, 2070.00, 3105.00,  0.00000,  0.00000,  0.00000,  0.00000,1,1,   0.00,   1,1.0000
     8,    30,'1 ', 4.31000E-3, 5.04000E-2,   0.51400,  741.00, 1112.00, 1667.00,  0.00000,  0.00000,  0.00000,  0.00000,1,1,   0.00,   1,1.0000
     9,    10,'1 ', 2.58000E-3, 3.22000E-2,   1.23000, 1395.00, 2093.00, 3139.00,  0.00000,  0.00000,  0.00000,  0.00000,1,1,   0.00,   1,1.0000
    11,    12,'1 ', 5.95000E-3, 1.96000E-2,   0.00502,  201.00,  302.00,  452.00,  0.00000,  0.00000,  0.00000,  0.00000,1,1,   0.00,   1,1.0000
    11,    13,'1 ', 2.22500E-2, 7.31000E-2,   0.01876,  126.00,  189.00,  284.00,  0.00000,  0.00000,  0.00000,  0.00000,1,1,   0.00,   1,1.0000
    12,    14,'1 ', 2.15000E-2, 7.07000E-2,   0.01816,   78.00,  117.00,  176.00,  0.00000,  0.00000,  0.00000,  0.00000,1,1,   0.00,   1,1.0000
    12,    16,'1 ', 2.12000E-2, 8.34000E-2,   0.02140,   96.00,  144.00,  216.00,  0.00000,  0.00000,  0.00000,  0.00000,1,1,   0.00,   1,1.0000
    12,   117,'1 ', 3.29000E-2, 1.40000E-1,   0.03580,   66.00,   99.00,  149.00,  0.00000,  0.00000,  0.00000,  0.00000,1,1,   0.00,   1,1.0000
    13,    15,'1 ', 7.44000E-2, 2.44400E-1,   0.06268,   96.00,  144.00,  216.00,  0.00000,  0.00000,  0.00000,  0.00000,1,1,   0.00,   1,1.0000
    14,    15,'1 ', 5.95000E-2, 1.95000E-1,   0.05020,  105.00,  158.00,  236.00,  0.00000,  0.00000,  0.00000,  0.00000,1,1,   0.00,   1,1.0000
    15,    17,'1 ', 1.32000E-2, 4.37000E-2,   0.04440,  336.00,  504.00,  756.00,  0.00000,  0.00000,  0.00000,  0.00000,1,1,   0.00,   1,1.0000
    15,    19,'1 ', 1.20000E-2, 3.94000E-2,   0.01010,  102.00,  153.00,  230.00,  0.00000,  0.00000,  0.00000,  0.00000,1,1,   0.00,   1,1.0000
    15,    33,'1 ', 3.80000E-2, 1.24400E-1,   0.03194,   81.00,  122.00,  182.00,  0.00000,  0.00000,  0.00000,  0.00000,1,1,   0.00,   1,1.0000
    16,    17,'1 ', 4.54000E-2, 1.80100E-1,   0.04660,  162.00,  243.00,  365.00,  0.00000,  0.00000,  0.00000,  0.00000,1,1,   0.00,   1,1.0000
    17,    18,'1 ', 1.23000E-2, 5.05000E-2,   0.01298,  264.00,  396.00,  594.00,  0.00000,  0.00000,  0.00000,  0.00000,1,1,   0.00,   1,1.0000
    17,    31,'1 ', 4.74000E-2, 1.56300E-1,   0.03990,  102.00,  153.00,  230.00,  0.00000,  0.00000,  0.00000,  0.00000,1,1,   0.00,   1,1.0000
    17,   113,'1 ', 9.13000E-3, 3.01000E-2,   0.00768,   84.00,  126.00,  189.00,  0.00000,  0.00000,  0.00000,  0.00000,1,1,   0.00,   1,1.0000
    18,    19,'1 ', 1.11900E-2, 4.93000E-2,   0.01142,   87.00,  131.00,  196.00,  0.00000,  0.00000,  0.00000,  0.00000,1,1,   0.00,   1,1.0000
    19,    20,'1 ', 2.52000E-2, 1.17000E-1,   0.02980,   81.00,  122.00,  182.00,  0.00000,  0.00000,  0.00000,  0.00000,1,1,   0.00,   1,1.0000
    19,    34,'1 ', 7.52000E-2, 2.47000E-1,   0.06320,   99.00,  149.00,  223.00,  0.00000,  0.00000,  0.00000,  0.00000,1,1,   0.00,   1,1.0000
    20,    21,'1 ', 1.83000E-2, 8.49000E-2,   0.02160,  129.00,  194.00,  290.00,  0.00000,  0.00000,  0.00000,  0.00000,1,1,   0.00,   1,1.0000
    21,    22,'1 ', 2.09000E-2, 9.70000E-2,   0.02460,  171.00,  257.00,  385.00,  0.00000,  0.00000,  0.00000,  0.00000,1,1,   0.00,   1,1.0000
    22,    23,'1 ', 3.42000E-2, 1.59000E-1,   0.04040,  207.00,  311.00,  466.00,  0.00000,  0.00000,  0.00000,  0.00000,1,1,   0.00,   1,1.0000
    23,    24,'1 ', 1.35000E-2, 4.92000E-2,   0.04980,  234.00,  351.00,  527.00,  0.00000,  0.00000,  0.00000,  0.00000,1,1,   0.00,   1,1.0000
    23,    25,'1 ', 1.56000E-2, 8.00000E-2,   0.08640,  579.00,  869.00, 1303.00,  0.00000,  0.00000,  0.00000,  0.00000,1,1,   0.00,   1,1.0000
    23,    32,'1 ', 3.17000E-2, 1.15300E-1,   0.11730,  351.00,  527.00,  790.00,  0.00000,  0.00000,  0.00000,  0.00000,1,1,   0.00,   1,1.0000
    24,    70,'1 ', 2.21000E-3, 4.11500E-1,   0.10198,  120.00,  180.00,  270.00,  0.00000,  0.00000,  0.00000,  0.00000,1,1,   0.00,   1,1.0000
    24,    72,'1 ', 4.88000E-2, 1.96000E-1,   0.04880,  117.00,  176.00,  263.00,  0.00000,  0.00000,  0.00000,  0.00000,1,1,   0.00,   1,1.0000
    25,    27,'1 ', 3.18000E-2, 1.63000E-1,   0.17640,  444.00,  666.00,  999.00,  0.00000,  0.00000,  0.00000,  0.00000,1,1,   0.00,   1,1.0000
    26,    30,'1 ', 7.99000E-3, 8.60000E-2,   0.90800,  858.00, 1287.00, 1931.00,  0.00000,  0.00000,  0.00000,  0.00000,1,1,   0.00,   1,1.0000
    27,    28,'1 ', 1.91300E-2, 8.55000E-2,   0.02160,  117.00,  176.00,  263.00,  0.00000,  0.00000,  0.00000,  0.00000,1,1,   0.00,   1,1.0000
    27,    32,'1 ', 2.29000E-2, 7.55000E-2,   0.01926,   48.00,   72.00,  108.00,  0.00000,  0.00000,  0.00000,  0.00000,1,1,   0.00,   1,1.0000
    27,   115,'1 ', 1.64000E-2, 7.41000E-2,   0.01972,   69.00,  104.00,  155.00,  0.00000,  0.00000,  0.00000,  0.00000,1,1,   0.00,   1,1.0000
    28,    29,'1 ', 2.37000E-2, 9.43000E-2,   0.02380,   69.00,  104.00,  155.00,  0.00000,  0.00000,  0.00000,  0.00000,1,1,   0.00,   1,1.0000
    29,    31,'1 ', 1.08000E-2, 3.31000E-2,   0.00830,   60.00,   90.00,  135.00,  0.00000,  0.00000,  0.00000,  0.00000,1,1,   0.00,   1,1.0000
    30,    38,'1 ', 4.64000E-3, 5.40000E-2,   0.42200,  471.00,  707.00, 1060.00,  0.00000,  0.00000,  0.00000,  0.00000,1,1,   0.00,   1,1.0000
    31,    32,'1 ', 2.98000E-2, 9.85000E-2,   0.02510,  135.00,  203.00,  304.00,  0.00000,  0.00000,  0.00000,  0.00000,1,1,   0.00,   1,1.0000
    32,   113,'1 ', 6.15000E-2, 2.03000E-1,   0.05180,  105.00,  158.00,  236.00,  0.00000,  0.00000,  0.00000,  0.00000,1,1,   0.00,   1,1.0000
    32,   114,'1 ', 1.35000E-2, 6.12000E-2,   0.01628,   54.00,   81.00,  122.00,  0.00000,  0.00000,  0.00000,  0.00000,1,1,   0.00,   1,1.0000
    33,    37,'1 ', 4.15000E-2, 1.42000E-1,   0.03660,  147.00,  221.00,  331.00,  0.00000,  0.00000,  0.00000,  0.00000,1,1,   0.00,   1,1.0000
    34,    36,'1 ', 8.71000E-3, 2.68000E-2,   0.00568,  105.00,  158.00,  236.00,  0.00000,  0.00000,  0.00000,  0.00000,1,1,   0.00,   1,1.0000
    34,    37,'1 ', 2.56000E-3, 9.40000E-3,   0.00984,  312.00,  468.00,  702.00,  0.00000,  0.00000,  0.00000,  0.00000,1,1,   0.00,   1,1.0000
    34,    43,'1 ', 4.13000E-2, 1.68100E-1,   0.04226,   81.00,  122.00,  182.00,  0.00000,  0.00000,  0.00000,  0.00000,1,1,   0.00,   1,1.0000
    35,    36,'1 ', 2.24000E-3, 1.02000E-2,   0.00268,   33.00,   50.00,   74.00,  0.00000,  0.00000,  0.00000,  0.00000,1,1,   0.00,   1,1.0000
    35,    37,'1 ', 1.10000E-2, 4.97000E-2,   0.01318,  114.00,  171.00,  257.00,  0.00000,  0.00000,  0.00000,  0.00000,1,1,   0.00,   1,1.0000
    37,    39,'1 ', 3.21000E-2, 1.06000E-1,   0.02700,  198.00,  297.00,  446.00,  0.00000,  0.00000,  0.00000,  0.00000,1,1,   0.00,   1,1.0000
    37,    40,'1 ', 5.93000E-2, 1.68000E-1,   0.04200,  165.00,  248.00,  371.00,  0.00000,  0.00000,  0.00000,  0.00000,1,1,   0.00,   1,1.0000
    38,    65,'1 ', 9.01000E-3, 9.86000E-2,   1.04600, 1047.00, 1571.00, 2356.00,  0.00000,  0.00000,  0.00000,  0.00000,1,1,   0.00,   1,1.0000
    39,    40,'1 ', 1.84000E-2, 6.05000E-2,   0.01552,  117.00,  176.00,  263.00,  0.00000,  0.00000,  0.00000,  0.00000,1,1,   0.00,   1,1.0000
    40,    41,'1 ', 1.45000E-2, 4.87000E-2,   0.01222,   87.00,  131.00,  196.00,  0.00000,  0.00000,  0.00000,  0.00000,1,1,   0.00,   1,1.0000
    40,    42,'1 ', 5.55000E-2, 1.83000E-1,   0.04660,  105.00,  158.00,  236.00,  0.00000,  0.00000,  0.00000,  0.00000,1,1,   0.00,   1,1.0000
    41,    42,'1 ', 4.10000E-2, 1.35000E-1,   0.03440,  132.00,  198.00,  297.00,  0.00000,  0.00000,  0.00000,  0.00000,1,1,   0.00,   1,1.0000
    42,    49,'1 ', 7.15000E-2, 3.23000E-1,   0.08600,  264.00,  396.00,  594.00,  0.00000,  0.00000,  0.00000,  0.00000,1,1,   0.00,   1,1.0000
    42,    49,'2 ', 7.15000E-2, 3.23000E-1,   0.08600,  264.00,  396.00,  594.00,  0.00000,  0.00000,  0.00000,  0.00000,1,1,   0.00,   1,1.0000
    43,    44,'1 ', 6.08000E-2, 2.45400E-1,   0.06068,  129.00,  194.00,  290.00,  0.00000,  0.00000,  0.00000,  0.00000,1,1,   0.00,   1,1.0000
    44,    45,'1 ', 2.24000E-2, 9.01000E-2,   0.02240,  177.00,  266.00,  398.00,  0.00000,  0.00000,  0.00000,  0.00000,1,1,   0.00,   1,1.0000
    45,    46,'1 ', 4.00000E-2, 1.35600E-1,   0.03320,  156.00,  234.00,  351.00,  0.00000,  0.00000,  0.00000,  0.00000,1,1,   0.00,   1,1.0000
    45,    49,'1 ', 6.84000E-2, 1.86000E-1,   0.04440,  192.00,  288.00,  432.00,  0.00000,  0.00000,  0.00000,  0.00000,1,1,   0.00,   1,1.0000
    46,    47,'1 ', 3.80000E-2, 1.27000E-1,   0.03160,  120.00,  180.00,  270.00,  0.00000,  0.00000,  0.00000,  0.00000,1,1,   0.00,   1,1.0000
    46,    48,'1 ', 6.01000E-2, 1.89000E-1,   0.04720,   63.00,   95.00,  142.00,  0.00000,  0.00000,  0.00000,  0.00000,1,1,   0.00,   1,1.0000
    47,    49,'1 ', 1.91000E-2, 6.25000E-2,   0.01604,   66.00,   99.00,  149.00,  0.00000,  0.00000,  0.00000,  0.00000,1,1,   0.00,   1,1.0000
    47,    69,'1 ', 8.44000E-2, 2.77800E-1,   0.07092,  243.00,  365.00,  547.00,  0.00000,  0.00000,  0.00000,  0.00000,1,1,   0.00,   1,1.0000
    48,    49,'1 ', 1.79000E-2, 5.05000E-2,   0.01258,  126.00,  189.00,  284.00,  0.00000,  0.00000,  0.00000,  0.00000,1,1,   0.00,   1,1.0000
    49,    50,'1 ', 2.67000E-2, 7.52000E-2,   0.01874,  195.00,  293.00,  439.00,  0.00000,  0.00000,  0.00000,  0.00000,1,1,   0.00,   1,1.0000
    49,    51,'1 ', 4.86000E-2, 1.37000E-1,   0.03420,  243.00,  365.00,  547.00,  0.00000,  0.00000,  0.00000,  0.00000,1,1,   0.00,   1,1.0000
    49,    54,'1 ', 8.69000E-2, 2.91000E-1,   0.07300,  150.00,  225.00,  338.00,  0.00000,  0.00000,  0.00000,  0.00000,1,1,   0.00,   1,1.0000
    49,    54,'2 ', 7.30000E-2, 2.89000E-1,   0.07380,  150.00,  225.00,  338.00,  0.00000,  0.00000,  0.00000,  0.00000,1,1,   0.00,   1,1.0000
    49,    66,'1 ', 1.80000E-2, 9.19000E-2,   0.02480,  540.00,  810.00, 1215.00,  0.00000,  0.00000,  0.00000,  0.00000,1,1,   0.00,   1,1.0000
    49,    66,'2 ', 1.80000E-2, 9.19000E-2,   0.02480,  540.00,  810.00, 1215.00,  0.00000,  0.00000,  0.00000,  0.00000,1,1,   0.00,   1,1.0000
    49,    69,'1 ', 9.85000E-2, 3.24000E-1,   0.08280,  216.00,  324.00,  486.00,  0.00000,  0.00000,  0.00000,  0.00000,1,1,   0.00,   1,1.0000
    50,    57,'1 ', 4.74000E-2, 1.34000E-1,   0.03320,  141.00,  212.00,  317.00,  0.00000,  0.00000,  0.00000,  0.00000,1,1,   0.00,   1,1.0000
    51,    52,'1 ', 2.03000E-2, 5.88000E-2,   0.01396,   99.00,  149.00,  223.00,  0.00000,  0.00000,  0.00000,  0.00000,1,1,   0.00,   1,1.0000
    51,    58,'1 ', 2.55000E-2, 7.19000E-2,   0.01788,   81.00,  122.00,  182.00,  0.00000,  0.00000,  0.00000,  0.00000,1,1,   0.00,   1,1.0000
    52,    53,'1 ', 4.05000E-2, 1.63500E-1,   0.04058,   45.00,   68.00,  101.00,  0.00000,  0.00000,  0.00000,  0.00000,1,1,   0.00,   1,1.0000
    53,    54,'1 ', 2.63000E-2, 1.22000E-1,   0.03100,   57.00,   86.00,  128.00,  0.00000,  0.00000,  0.00000,  0.00000,1,1,   0.00,   1,1.0000
    54,    55,'1 ', 1.69000E-2, 7.07000E-2,   0.02020,   33.00,   50.00,   74.00,  0.00000,  0.00000,  0.00000,  0.00000,1,1,   0.00,   1,1.0000
    54,    56,'1 ', 2.75000E-3, 9.55000E-3,   0.00732,   90.00,  135.00,  203.00,  0.00000,  0.00000,  0.00000,  0.00000,1,1,   0.00,   1,1.0000
    54,    59,'1 ', 5.03000E-2, 2.29300E-1,   0.05980,  117.00,  176.00,  263.00,  0.00000,  0.00000,  0.00000,  0.00000,1,1,   0.00,   1,1.0000
    55,    56,'1 ', 4.88000E-3, 1.51000E-2,   0.00374,   87.00,  131.00,  196.00,  0.00000,  0.00000,  0.00000,  0.00000,1,1,   0.00,   1,1.0000
    55,    59,'1 ', 4.73900E-2, 2.15800E-1,   0.05646,  129.00,  194.00,  290.00,  0.00000,  0.00000,  0.00000,  0.00000,1,1,   0.00,   1,1.0000
    56,    57,'1 ', 3.43000E-2, 9.66000E-2,   0.02420,   99.00,  149.00,  223.00,  0.00000,  0.00000,  0.00000,  0.00000,1,1,   0.00,   1,1.0000
    56,    58,'1 ', 3.43000E-2, 9.66000E-2,   0.02420,   45.00,   68.00,  101.00,  0.00000,  0.00000,  0.00000,  0.00000,1,1,   0.00,   1,1.0000
    56,    59,'1 ', 8.03000E-2, 2.39000E-1,   0.05360,  111.00,  167.00,  250.00,  0.00000,  0.00000,  0.00000,  0.00000,1,1,   0.00,   1,1.0000
    56,    59,'2 ', 8.25000E-2, 2.51000E-1,   0.05690,  111.00,  167.00,  250.00,  0.00000,  0.00000,  0.00000,  0.00000,1,1,   0.00,   1,1.0000
    59,    60,'1 ', 3.17000E-2, 1.45000E-1,   0.03760,  204.00,  306.00,  459.00,  0.00000,  0.00000,  0.00000,  0.00000,1,1,   0.00,   1,1.0000
    59,    61,'1 ', 3.28000E-2, 1.50000E-1,   0.03880,  231.00,  347.00,  520.00,  0.00000,  0.00000,  0.00000,  0.00000,1,1,   0.00,   1,1.0000
    60,    61,'1 ', 2.64000E-3, 1.35000E-2,   0.01456,  378.00,  567.00,  851.00,  0.00000,  0.00000,  0.00000,  0.00000,1,1,   0.00,   1,1.0000
    60,    62,'1 ', 1.23000E-2, 5.61000E-2,   0.01468,   69.00,  104.00,  155.00,  0.00000,  0.00000,  0.00000,  0.00000,1,1,   0.00,   1,1.0000
    61,    62,'1 ', 8.24000E-3, 3.76000E-2,   0.00980,  162.00,  243.00,  365.00,  0.00000,  0.00000,  0.00000,  0.00000,1,1,   0.00,   1,1.0000
    62,    66,'1 ', 4.82000E-2, 2.18000E-1,   0.05780,  174.00,  261.00,  392.00,  0.00000,  0.00000,  0.00000,  0.00000,1,1,   0.00,   1,1.0000
    62,    67,'1 ', 2.58000E-2, 1.17000E-1,   0.03100,  129.00,  194.00,  290.00,  0.00000,  0.00000,  0.00000,  0.00000,1,1,   0.00,   1,1.0000
    63,    64,'1 ', 1.72000E-3, 2.00000E-2,   0.21600,  702.00, 1053.00, 1580.00,  0.00000,  0.00000,  0.00000,  0.00000,1,1,   0.00,   1,1.0000
    64,    65,'1 ', 2.69000E-3, 3.02000E-2,   0.38000,  843.00, 1265.00, 1897.00,  0.00000,  0.00000,  0.00000,  0.00000,1,1,   0.00,   1,1.0000
    65,    68,'1 ', 1.38000E-3, 1.60000E-2,   0.63800,  798.00, 1197.00, 1796.00,  0.00000,  0.00000,  0.00000,  0.00000,1,1,   0.00,   1,1.0000
    66,    67,'1 ', 2.24000E-2, 1.01500E-1,   0.02682,  219.00,  329.00,  493.00,  0.00000,  0.00000,  0.00000,  0.00000,1,1,   0.00,   1,1.0000
    68,    81,'1 ', 1.75000E-3, 2.02000E-2,   0.80800,  627.00,  941.00, 1411.00,  0.00000,  0.00000,  0.00000,  0.00000,1,1,   0.00,   1,1.0000
    68,   116,'1 ', 3.40000E-4, 4.05000E-3,   0.16400,  642.00,  963.00, 1445.00,  0.00000,  0.00000,  0.00000,  0.00000,1,1,   0.00,   1,1.0000
    69,    70,'1 ', 3.00000E-2, 1.27000E-1,   0.12200,  393.00,  590.00,  884.00,  0.00000,  0.00000,  0.00000,  0.00000,1,1,   0.00,   1,1.0000
    69,    75,'1 ', 4.05000E-2, 1.22000E-1,   0.12400,  357.00,  536.00,  803.00,  0.00000,  0.00000,  0.00000,  0.00000,1,1,   0.00,   1,1.0000
    69,    77,'1 ', 3.09000E-2, 1.01000E-1,   0.10380,  525.00,  788.00, 1181.00,  0.00000,  0.00000,  0.00000,  0.00000,1,1,   0.00,   1,1.0000
    70,    71,'1 ', 8.82000E-3, 3.55000E-2,   0.00878,  132.00,  198.00,  297.00,  0.00000,  0.00000,  0.00000,  0.00000,1,1,   0.00,   1,1.0000
    70,    74,'1 ', 4.01000E-2, 1.32300E-1,   0.03368,  126.00,  189.00,  284.00,  0.00000,  0.00000,  0.00000,  0.00000,1,1,   0.00,   1,1.0000
    70,    75,'1 ', 4.28000E-2, 1.41000E-1,   0.03600,  105.00,  158.00,  236.00,  0.00000,  0.00000,  0.00000,  0.00000,1,1,   0.00,   1,1.0000
    71,    72,'1 ', 4.46000E-2, 1.80000E-1,   0.04444,  123.00,  185.00,  277.00,  0.00000,  0.00000,  0.00000,  0.00000,1,1,   0.00,   1,1.0000
    71,    73,'1 ', 8.66000E-3, 4.54000E-2,   0.01178,   45.00,   68.00,  101.00,  0.00000,  0.00000,  0.00000,  0.00000,1,1,   0.00,   1,1.0000
    74,    75,'1 ', 1.23000E-2, 4.06000E-2,   0.01034,  186.00,  279.00,  419.00,  0.00000,  0.00000,  0.00000,  0.00000,1,1,   0.00,   1,1.0000
    75,    77,'1 ', 6.01000E-2, 1.99900E-1,   0.04978,  150.00,  225.00,  338.00,  0.00000,  0.00000,  0.00000,  0.00000,1,1,   0.00,   1,1.0000
    75,   118,'1 ', 1.45000E-2, 4.81000E-2,   0.01198,  216.00,  324.00,  486.00,  0.00000,  0.00000,  0.00000,  0.00000,1,1,   0.00,   1,1.0000
    76,    77,'1 ', 4.44000E-2, 1.48000E-1,   0.03680,  222.00,  333.00,  500.00,  0.00000,  0.00000,  0.00000,  0.00000,1,1,   0.00,   1,1.0000
    76,   118,'1 ', 1.64000E-2, 5.44000E-2,   0.01356,  108.00,  162.00,  243.00,  0.00000,  0.00000,  0.00000,  0.00000,1,1,   0.00,   1,1.0000
    77,    78,'1 ', 3.76000E-3, 1.24000E-2,   0.01264,  255.00,  383.00,  574.00,  0.00000,  0.00000,  0.00000,  0.00000,1,1,   0.00,   1,1.0000
    77,    80,'1 ', 2.94000E-2, 1.05000E-1,   0.02280,  336.00,  504.00,  756.00,  0.00000,  0.00000,  0.00000,  0.00000,1,1,   0.00,   1,1.0000
    77,    80,'2 ', 1.70000E-2, 4.85000E-2,   0.04720,  336.00,  504.00,  756.00,  0.00000,  0.00000,  0.00000,  0.00000,1,1,   0.00,   1,1.0000
    77,    82,'1 ', 2.98000E-2, 8.53000E-2,   0.08174,  507.00,  761.00, 1141.00,  0.00000,  0.00000,  0.00000,  0.00000,1,1,   0.00,   1,1.0000
    78,    79,'1 ', 5.46000E-3, 2.44000E-2,   0.00648,  102.00,  153.00,  230.00,  0.00000,  0.00000,  0.00000,  0.00000,1,1,   0.00,   1,1.0000
    79,    80,'1 ', 1.56000E-2, 7.04000E-2,   0.01870,  228.00,  342.00,  513.00,  0.00000,  0.00000,  0.00000,  0.00000,1,1,   0.00,   1,1.0000
    80,    96,'1 ', 3.56000E-2, 1.82000E-1,   0.04940,  306.00,  459.00,  689.00,  0.00000,  0.00000,  0.00000,  0.00000,1,1,   0.00,   1,1.0000
    80,    97,'1 ', 1.83000E-2, 9.34000E-2,   0.02540,  333.00,  500.00,  749.00,  0.00000,  0.00000,  0.00000,  0.00000,1,1,   0.00,   1,1.0000
    80,    98,'1 ', 2.38000E-2, 1.08000E-1,   0.02860,  282.00,  423.00,  635.00,  0.00000,  0.00000,  0.00000,  0.00000,1,1,   0.00,   1,1.0000
    80,    99,'1 ', 4.54000E-2, 2.06000E-1,   0.05460,  243.00,  365.00,  547.00,  0.00000,  0.00000,  0.00000,  0.00000,1,1,   0.00,   1,1.0000
    82,    83,'1 ', 1.12000E-2, 3.66500E-2,   0.03796,  375.00,  563.00,  844.00,  0.00000,  0.00000,  0.00000,  0.00000,1,1,   0.00,   1,1.0000
    82,    96,'1 ', 1.62000E-2, 5.30000E-2,   0.05440,   66.00,   99.00,  149.00,  0.00000,  0.00000,  0.00000,  0.00000,1,1,   0.00,   1,1.0000
    83,    84,'1 ', 6.25000E-2, 1.32000E-1,   0.02580,  135.00,  203.00,  304.00,  0.00000,  0.00000,  0.00000,  0.00000,1,1,   0.00,   1,1.0000
    83,    85,'1 ', 4.30000E-2, 1.48000E-1,   0.03480,  189.00,  284.00,  425.00,  0.00000,  0.00000,  0.00000,  0.00000,1,1,   0.00,   1,1.0000
    84,    85,'1 ', 3.02000E-2, 6.41000E-2,   0.01234,  153.00,  230.00,  344.00,  0.00000,  0.00000,  0.00000,  0.00000,1,1,   0.00,   1,1.0000
    85,    86,'1 ', 3.50000E-2, 1.23000E-1,   0.02760,   66.00,   99.00,  149.00,  0.00000,  0.00000,  0.00000,  0.00000,1,1,   0.00,   1,1.0000
    85,    88,'1 ', 2.00000E-2, 1.02000E-1,   0.02760,  174.00,  261.00,  392.00,  0.00000,  0.00000,  0.00000,  0.00000,1,1,   0.00,   1,1.0000
    85,    89,'1 ', 2.39000E-2, 1.73000E-1,   0.04700,  237.00,  356.00,  533.00,  0.00000,  0.00000,  0.00000,  0.00000,1,1,   0.00,   1,1.0000
    86,    87,'1 ', 2.82800E-2, 2.07400E-1,   0.04450,   72.00,  108.00,  162.00,  0.00000,  0.00000,  0.00000,  0.00000,1,1,   0.00,   1,1.0000
    88,    89,'1 ', 1.39000E-2, 7.12000E-2,   0.01934,  321.00,  482.00,  722.00,  0.00000,  0.00000,  0.00000,  0.00000,1,1,   0.00,   1,1.0000
    89,    90,'1 ', 2.38000E-2, 9.97000E-2,   0.10600,  336.00,  504.00,  756.00,  0.00000,  0.00000,  0.00000,  0.00000,1,1,   0.00,   1,1.0000
    89,    90,'2 ', 5.18000E-2, 1.88000E-1,   0.05280,  336.00,  504.00,  756.00,  0.00000,  0.00000,  0.00000,  0.00000,1,1,   0.00,   1,1.0000
    89,    92,'1 ', 3.93000E-2, 1.58100E-1,   0.04140,  675.00, 1013.00, 1519.00,  0.00000,  0.00000,  0.00000,  0.00000,1,1,   0.00,   1,1.0000
    89,    92,'2 ', 9.90000E-3, 5.05000E-2,   0.05480,  675.00, 1013.00, 1519.00,  0.00000,  0.00000,  0.00000,  0.00000,1,1,   0.00,   1,1.0000
    90,    91,'1 ', 2.54000E-2, 8.36000E-2,   0.02140,  156.00,  234.00,  351.00,  0.00000,  0.00000,  0.00000,  0.00000,1,1,   0.00,   1,1.0000
    91,    92,'1 ', 3.87000E-2, 1.27200E-1,   0.03268,  150.00,  225.00,  338.00,  0.00000,  0.00000,  0.00000,  0.00000,1,1,   0.00,   1,1.0000
    92,    93,'1 ', 2.58000E-2, 8.48000E-2,   0.02180,  210.00,  315.00,  473.00,  0.00000,  0.00000,  0.00000,  0.00000,1,1,   0.00,   1,1.0000
    92,    94,'1 ', 4.81000E-2, 1.58000E-1,   0.04060,  198.00,  297.00,  446.00,  0.00000,  0.00000,  0.00000,  0.00000,1,1,   0.00,   1,1.0000
    92,   100,'1 ', 6.48000E-2, 2.95000E-1,   0.04720,  150.00,  225.00,  338.00,  0.00000,  0.00000,  0.00000,  0.00000,1,1,   0.00,   1,1.0000
    92,   102,'1 ', 1.23000E-2, 5.59000E-2,   0.01464,  189.00,  284.00,  425.00,  0.00000,  0.00000,  0.00000,  0.00000,1,1,   0.00,   1,1.0000
    93,    94,'1 ', 2.23000E-2, 7.32000E-2,   0.01876,  201.00,  302.00,  452.00,  0.00000,  0.00000,  0.00000,  0.00000,1,1,   0.00,   1,1.0000
    94,    95,'1 ', 1.32000E-2, 4.34000E-2,   0.01110,  192.00,  288.00,  432.00,  0.00000,  0.00000,  0.00000,  0.00000,1,1,   0.00,   1,1.0000
    94,    96,'1 ', 2.69000E-2, 8.69000E-2,   0.02300,  189.00,  284.00,  425.00,  0.00000,  0.00000,  0.00000,  0.00000,1,1,   0.00,   1,1.0000
    94,   100,'1 ', 1.78000E-2, 5.80000E-2,   0.06040,  294.00,  441.00,  662.00,  0.00000,  0.00000,  0.00000,  0.00000,1,1,   0.00,   1,1.0000
    95,    96,'1 ', 1.71000E-2, 5.47000E-2,   0.01474,  216.00,  324.00,  486.00,  0.00000,  0.00000,  0.00000,  0.00000,1,1,   0.00,   1,1.0000
    96,    97,'1 ', 1.73000E-2, 8.85000E-2,   0.02400,  273.00,  410.00,  614.00,  0.00000,  0.00000,  0.00000,  0.00000,1,1,   0.00,   1,1.0000
    98,   100,'1 ', 3.97000E-2, 1.79000E-1,   0.04760,  177.00,  266.00,  398.00,  0.00000,  0.00000,  0.00000,  0.00000,1,1,   0.00,   1,1.0000
...